3WL
  -OEChem-05102419503D

 30 32  0     0  0  0  0  0  0999 V2000
  -13.1610   -5.3530   -3.1300 C   0  0  0  0  0  0  0  0  0  0  0  0
  -14.3290   -5.7610   -3.7510 C   0  0  0  0  0  0  0  0  0  0  0  0
  -11.5200   -5.5110   -1.2720 C   0  0  0  0  0  0  0  0  0  0  0  0
  -10.4940   -4.8390   -1.8390 C   0  0  0  0  0  0  0  0  0  0  0  0
   -9.3170   -4.4630   -1.1000 C   0  0  0  0  0  0  0  0  0  0  0  0
   -8.2380   -4.5700    1.1650 C   0  0  0  0  0  0  0  0  0  0  0  0
  -10.4620   -5.9570    2.1490 C   0  0  0  0  0  0  0  0  0  0  0  0
   -8.3770   -3.8470   -1.6220 O   0  0  0  0  0  0  0  0  0  0  0  0
   -9.3120   -4.8600    0.3020 C   0  0  0  0  0  0  0  0  0  0  0  0
  -10.4070   -5.5540    0.8290 C   0  0  0  0  0  0  0  0  0  0  0  0
   -9.3990   -5.6660    2.9870 C   0  0  0  0  0  0  0  0  0  0  0  0
   -9.4210   -6.0480    4.2910 O   0  0  0  0  0  0  0  0  0  0  0  0
   -8.2860   -4.9750    2.5070 C   0  0  0  0  0  0  0  0  0  0  0  0
   -7.2390   -4.6870    3.3230 O   0  0  0  0  0  0  0  0  0  0  0  0
   -7.1390   -3.9000    0.7310 O   0  0  0  0  0  0  0  0  0  0  0  0
  -11.4990   -5.8750    0.0450 O   0  0  0  0  0  0  0  0  0  0  0  0
  -12.7570   -5.9400   -1.9350 C   0  0  0  0  0  0  0  0  0  0  0  0
  -13.5490   -6.9400   -1.3800 C   0  0  0  0  0  0  0  0  0  0  0  0
  -14.7150   -7.3410   -2.0080 C   0  0  0  0  0  0  0  0  0  0  0  0
  -15.1050   -6.7530   -3.1920 C   0  0  0  0  0  0  0  0  0  0  0  0
  -12.5600   -4.5740   -3.5760 H   0  0  0  0  0  0  0  0  0  0  0  0
  -14.6340   -5.2990   -4.6790 H   0  0  0  0  0  0  0  0  0  0  0  0
  -10.5590   -4.5740   -2.8840 H   0  0  0  0  0  0  0  0  0  0  0  0
  -11.3230   -6.4920    2.5220 H   0  0  0  0  0  0  0  0  0  0  0  0
   -8.6190   -5.7690    4.7170 H   0  0  0  0  0  0  0  0  0  0  0  0
   -7.4150   -5.0220    4.1950 H   0  0  0  0  0  0  0  0  0  0  0  0
   -7.2400   -3.6880   -0.1900 H   0  0  0  0  0  0  0  0  0  0  0  0
  -13.2520   -7.4070   -0.4520 H   0  0  0  0  0  0  0  0  0  0  0  0
  -15.3220   -8.1180   -1.5680 H   0  0  0  0  0  0  0  0  0  0  0  0
  -16.0150   -7.0690   -3.6800 H   0  0  0  0  0  0  0  0  0  0  0  0
  2 20  2  0  0  0  0
  1  2  1  0  0  0  0
 19 20  1  0  0  0  0
  1 17  2  0  0  0  0
 18 19  2  0  0  0  0
 17 18  1  0  0  0  0
  3 17  1  0  0  0  0
  3  4  2  0  0  0  0
  4  5  1  0  0  0  0
  5  8  2  0  0  0  0
  3 16  1  0  0  0  0
  5  9  1  0  0  0  0
 10 16  1  0  0  0  0
  9 10  2  0  0  0  0
  6  9  1  0  0  0  0
  6 15  1  0  0  0  0
  7 10  1  0  0  0  0
  6 13  2  0  0  0  0
  7 11  2  0  0  0  0
 11 13  1  0  0  0  0
 13 14  1  0  0  0  0
 11 12  1  0  0  0  0
  1 21  1  0  0  0  0
  2 22  1  0  0  0  0
  4 23  1  0  0  0  0
  7 24  1  0  0  0  0
 12 25  1  0  0  0  0
 14 26  1  0  0  0  0
 15 27  1  0  0  0  0
 18 28  1  0  0  0  0
 19 29  1  0  0  0  0
 20 30  1  0  0  0  0
M  END
> <OPENEYE_ISO_SMILES>
c1ccc(cc1)c2cc(=O)c3c(o2)cc(c(c3O)O)O

> <OPENEYE_INCHI>
InChI=1S/C15H10O5/c16-9-6-11(8-4-2-1-3-5-8)20-12-7-10(17)14(18)15(19)13(9)12/h1-7,17-19H

> <OPENEYE_INCHIKEY>
FXNFHKRTJBSTCS-UHFFFAOYSA-N

> <FORMULA>
C15H10O5

$$$$
