hitvisc.target.autodockvina.example.refligand.pdbqt
 OpenBabel11092412283D

 29 32  0  0  1  0  0  0  0  0999 V2000
    0.5990   -0.5550   -1.3340 C   0  0  1  0  0  3  0  0  0  0  0  0
    0.3930   -2.0780   -1.5330 C   0  0  0  0  0  2  0  0  0  0  0  0
   -0.2050   -2.2560   -2.9600 C   0  0  0  0  0  2  0  0  0  0  0  0
    0.1600   -0.9190   -3.6270 C   0  0  2  0  0  3  0  0  0  0  0  0
   -0.1910    0.0790   -2.5030 C   0  0  2  0  0  0  0  0  0  0  0  0
    0.2460    1.4680   -2.8820 C   0  0  0  0  0  2  0  0  0  0  0  0
   -0.1590    1.8220   -4.3160 C   0  0  0  0  0  2  0  0  0  0  0  0
   -1.1030    0.8070   -4.9390 C   0  0  2  0  0  3  0  0  0  0  0  0
   -0.5060   -0.6010   -4.9280 C   0  0  2  0  0  3  0  0  0  0  0  0
   -1.6320   -1.5830   -5.2740 C   0  0  0  0  0  2  0  0  0  0  0  0
   -2.1880   -1.1830   -6.6150 C   0  0  0  0  0  3  0  0  0  0  0  0
   -2.0930    0.0160   -7.1000 C   0  0  0  0  0  0  0  0  0  0  0  0
   -1.4610    1.1790   -6.3760 C   0  0  2  0  0  0  0  0  0  0  0  0
   -0.2530    1.6500   -7.1740 C   0  0  0  0  0  2  0  0  0  0  0  0
   -0.2320    0.9820   -8.5480 C   0  0  0  0  0  2  0  0  0  0  0  0
   -1.5760    1.0760   -9.2590 C   0  0  1  0  0  3  0  0  0  0  0  0
   -2.6500    0.3040   -8.4840 C   0  0  0  0  0  2  0  0  0  0  0  0
   -2.4830    2.3200   -6.3110 C   0  0  0  0  0  1  0  0  0  0  0  0
   -1.6660    0.0440   -2.1050 C   0  0  0  0  0  1  0  0  0  0  0  0
    0.0030   -0.1030   -0.0030 C   0  0  2  0  0  3  0  0  0  0  0  0
    0.2050    1.4040    0.1610 C   0  0  0  0  0  1  0  0  0  0  0  0
    0.6990   -0.8400    1.1430 C   0  0  0  0  0  2  0  0  0  0  0  0
    0.0200   -0.4820    2.4660 C   0  0  0  0  0  2  0  0  0  0  0  0
    0.7160   -1.2180    3.6130 C   0  0  0  0  0  2  0  0  0  0  0  0
    0.0360   -0.8600    4.9360 C   0  0  0  0  0  3  0  0  0  0  0  0
   -1.4000   -1.3870    4.9300 C   0  0  0  0  0  1  0  0  0  0  0  0
    0.8080   -1.4960    6.0940 C   0  0  0  0  0  1  0  0  0  0  0  0
   -1.9620    2.4430   -9.3980 O   0  0  0  0  0  0  0  0  0  0  0  0
   -2.8100    2.5690   -9.8430 H   0  0  0  0  0  0  0  0  0  0  0  0
  1 20  1  1  0  0  0
  2  1  1  0  0  0  0
  3  2  1  0  0  0  0
  4  3  1  1  0  0  0
  4  5  1  0  0  0  0
  5 19  1  1  0  0  0
  5  1  1  0  0  0  0
  6  5  1  0  0  0  0
  7  6  1  0  0  0  0
  8  9  1  0  0  0  0
  8  7  1  6  0  0  0
  9 10  1  1  0  0  0
  9  4  1  0  0  0  0
 11 10  1  0  0  0  0
 12 11  2  0  0  0  0
 12 13  1  0  0  0  0
 13 18  1  1  0  0  0
 13  8  1  0  0  0  0
 14 13  1  0  0  0  0
 15 14  1  0  0  0  0
 16 28  1  1  0  0  0
 16 15  1  0  0  0  0
 16 17  1  0  0  0  0
 17 12  1  0  0  0  0
 20 21  1  1  0  0  0
 20 22  1  0  0  0  0
 22 23  1  0  0  0  0
 23 24  1  0  0  0  0
 24 25  1  0  0  0  0
 25 27  1  0  0  0  0
 26 25  1  0  0  0  0
 29 28  1  0  0  0  0
M  END
>  <REMARK>
  6 active torsions:
  status: ('A' for Active; 'I' for Inactive)
    1  A    between atoms: C2_2  and  C3_3 
    2  A    between atoms: C2_2  and  C9_9 
    3  A    between atoms: C3_3  and  C4_4 
    4  A    between atoms: C4_4  and  C5_5 
    5  A    between atoms: C5_5  and  C6_6 
    6  A    between atoms: C24_24  and  O1_26 

>  <TORSDO>
F 6

$$$$

