MODEL 1
REMARK VINA RESULT:   -10.892      0.000      0.000
REMARK INTER + INTRA:         -15.243
REMARK INTER:                 -14.394
REMARK INTRA:                  -0.850
REMARK UNBOUND:                -0.850
REMARK  6 active torsions:
REMARK  status: ('A' for Active; 'I' for Inactive)
REMARK    1  A    between atoms: C2_2  and  C3_3 
REMARK    2  A    between atoms: C2_2  and  C9_9 
REMARK    3  A    between atoms: C3_3  and  C4_4 
REMARK    4  A    between atoms: C4_4  and  C5_5 
REMARK    5  A    between atoms: C5_5  and  C6_6 
REMARK    6  A    between atoms: C24_24  and  O1_26 
ROOT
ATOM      1  C9  <0> A   1      24.895  24.834  17.492  1.00  0.00    -0.002 C 
ATOM      2  C10 <0> A   1      24.899  23.833  18.675  1.00  0.00     0.006 C 
ATOM      3  C11 <0> A   1      23.453  23.834  19.253  1.00  0.00     0.006 C 
ATOM      4  C12 <0> A   1      22.645  24.432  18.089  1.00  0.00    -0.001 C 
ATOM      5  C13 <0> A   1      23.561  25.598  17.660  1.00  0.00    -0.036 C 
ATOM      6  C14 <0> A   1      23.036  26.240  16.405  1.00  0.00     0.010 C 
ATOM      7  C15 <0> A   1      21.528  26.495  16.482  1.00  0.00     0.007 C 
ATOM      8  C16 <0> A   1      20.954  26.272  17.871  1.00  0.00     0.003 C 
ATOM      9  C17 <0> A   1      21.242  24.860  18.382  1.00  0.00    -0.001 C 
ATOM     10  C18 <0> A   1      20.913  24.834  19.879  1.00  0.00     0.033 C 
ATOM     11  C19 <0> A   1      19.472  25.241  20.036  1.00  0.00    -0.023 C 
ATOM     12  C20 <0> A   1      18.831  25.953  19.162  1.00  0.00    -0.072 C 
ATOM     13  C21 <0> A   1      19.446  26.509  17.901  1.00  0.00    -0.017 C 
ATOM     14  C22 <0> A   1      18.735  25.896  16.702  1.00  0.00     0.016 C 
ATOM     15  C23 <0> A   1      17.486  25.141  17.155  1.00  0.00     0.033 C 
ATOM     16  C24 <0> A   1      16.616  25.969  18.091  1.00  0.00     0.122 C 
ATOM     17  C25 <0> A   1      17.363  26.271  19.395  1.00  0.00     0.066 C 
ATOM     18  C26 <0> A   1      19.221  28.026  17.884  1.00  0.00     0.020 C 
ATOM     19  C27 <0> A   1      23.782  26.628  18.767  1.00  0.00     0.016 C 
ENDROOT
BRANCH   1  20
ATOM     20  C2  <0> A   1      26.065  25.807  17.610  1.00  0.00    -0.014 C 
ATOM     21  C1  <0> A   1      26.485  26.272  16.214  1.00  0.00     0.010 C 
BRANCH  20  22
ATOM     22  C3  <0> A   1      27.243  25.107  18.291  1.00  0.00     0.005 C 
BRANCH  22  23
ATOM     23  C4  <0> A   1      28.145  24.477  17.228  1.00  0.00     0.001 C 
BRANCH  23  24
ATOM     24  C5  <0> A   1      28.389  23.006  17.571  1.00  0.00     0.004 C 
BRANCH  24  25
ATOM     25  C6  <0> A   1      29.037  22.304  16.377  1.00  0.00    -0.023 C 
ATOM     26  C7  <0> A   1      30.557  22.458  16.459  1.00  0.00     0.009 C 
ATOM     27  C8  <0> A   1      28.673  20.818  16.400  1.00  0.00     0.009 C 
ENDBRANCH  24  25
ENDBRANCH  23  24
ENDBRANCH  22  23
ENDBRANCH  20  22
ENDBRANCH   1  20
BRANCH  16  28
ATOM     28  O1  <0> A   1      16.233  27.188  17.454  1.00  0.00    -0.395 OA
ATOM     29  H40 <0> A   1      16.690  27.356  16.620  1.00  0.00     0.210 HD
ENDBRANCH  16  28
TORSDOF 6
ENDMDL
