REMARK  6 active torsions:
REMARK  status: ('A' for Active; 'I' for Inactive)
REMARK    1  A    between atoms: C2_2  and  C3_3 
REMARK    2  A    between atoms: C2_2  and  C9_9 
REMARK    3  A    between atoms: C3_3  and  C4_4 
REMARK    4  A    between atoms: C4_4  and  C5_5 
REMARK    5  A    between atoms: C5_5  and  C6_6 
REMARK    6  A    between atoms: C24_24  and  O1_26 
ROOT
ATOM      1  C9  <0> A   1       0.599  -0.555  -1.334  1.00  0.00    -0.002 C 
ATOM      2  C10 <0> A   1       0.393  -2.078  -1.533  1.00  0.00     0.006 C 
ATOM      3  C11 <0> A   1      -0.205  -2.256  -2.960  1.00  0.00     0.006 C 
ATOM      4  C12 <0> A   1       0.160  -0.919  -3.627  1.00  0.00    -0.001 C 
ATOM      5  C13 <0> A   1      -0.191   0.079  -2.503  1.00  0.00    -0.036 C 
ATOM      6  C14 <0> A   1       0.246   1.468  -2.882  1.00  0.00     0.010 C 
ATOM      7  C15 <0> A   1      -0.159   1.822  -4.316  1.00  0.00     0.007 C 
ATOM      8  C16 <0> A   1      -1.103   0.807  -4.939  1.00  0.00     0.003 C 
ATOM      9  C17 <0> A   1      -0.506  -0.601  -4.928  1.00  0.00    -0.001 C 
ATOM     10  C18 <0> A   1      -1.632  -1.583  -5.274  1.00  0.00     0.033 C 
ATOM     11  C19 <0> A   1      -2.188  -1.183  -6.615  1.00  0.00    -0.023 C 
ATOM     12  C20 <0> A   1      -2.093   0.016  -7.100  1.00  0.00    -0.072 C 
ATOM     13  C21 <0> A   1      -1.461   1.179  -6.376  1.00  0.00    -0.017 C 
ATOM     14  C22 <0> A   1      -0.253   1.650  -7.174  1.00  0.00     0.016 C 
ATOM     15  C23 <0> A   1      -0.232   0.982  -8.548  1.00  0.00     0.033 C 
ATOM     16  C24 <0> A   1      -1.576   1.076  -9.259  1.00  0.00     0.122 C 
ATOM     17  C25 <0> A   1      -2.650   0.304  -8.484  1.00  0.00     0.066 C 
ATOM     18  C26 <0> A   1      -2.483   2.320  -6.311  1.00  0.00     0.020 C 
ATOM     19  C27 <0> A   1      -1.666   0.044  -2.105  1.00  0.00     0.016 C 
ENDROOT
BRANCH   1  20
ATOM     20  C2  <0> A   1       0.003  -0.103  -0.003  1.00  0.00    -0.014 C 
ATOM     21  C1  <0> A   1       0.205   1.404   0.161  1.00  0.00     0.010 C 
BRANCH  20  22
ATOM     22  C3  <0> A   1       0.699  -0.840   1.143  1.00  0.00     0.005 C 
BRANCH  22  23
ATOM     23  C4  <0> A   1       0.020  -0.482   2.466  1.00  0.00     0.001 C 
BRANCH  23  24
ATOM     24  C5  <0> A   1       0.716  -1.218   3.613  1.00  0.00     0.004 C 
BRANCH  24  25
ATOM     25  C6  <0> A   1       0.036  -0.860   4.936  1.00  0.00    -0.023 C 
ATOM     26  C7  <0> A   1      -1.400  -1.387   4.930  1.00  0.00     0.009 C 
ATOM     27  C8  <0> A   1       0.808  -1.496   6.094  1.00  0.00     0.009 C 
ENDBRANCH  24  25
ENDBRANCH  23  24
ENDBRANCH  22  23
ENDBRANCH  20  22
ENDBRANCH   1  20
BRANCH  16  28
ATOM     28  O1  <0> A   1      -1.962   2.443  -9.398  1.00  0.00    -0.395 OA
ATOM     29  H40 <0> A   1      -2.810   2.569  -9.843  1.00  0.00     0.210 HD
ENDBRANCH  16  28
TORSDOF 6
